New England/PSSE Cases/Hard/Summer90Generous.RAW
 0,    100.00, 33, 0, 0, 60.00       / August 22, 2017 09:08:56; Simulator Version 19; BuildDate 2016_7_14


    1,'1           ', 345.0000,2,   1,   1,   1,1.02000,   2.2457, 1.10000, 0.98000, 1.10000, 0.98000
    2,'2           ', 345.0000,1,   1,   1,   1,1.02043, -16.0795, 1.06000, 0.92000, 1.06000, 0.92000
    3,'3           ', 138.0000,2,   1,   1,   1,1.02000,  -3.5206, 1.10000, 0.98000, 1.10000, 0.98000
    4,'4           ', 138.0000,1,   1,   1,   1,0.98874, -20.1850, 1.06000, 0.92000, 1.06000, 0.92000
    5,'5           ', 230.0000,1,   1,   1,   1,0.99322, -14.5970, 1.06000, 0.92000, 1.06000, 0.92000
    6,'6           ', 138.0000,1,   1,   1,   1,1.00022,  -8.8306, 1.06000, 0.92000, 1.06000, 0.92000
    7,'7           ', 138.0000,2,   1,   1,   1,1.02000, -10.4116, 1.10000, 0.98000, 1.10000, 0.98000
    8,'8           ', 230.0000,2,   1,   1,   1,1.02000,  -8.4778, 1.10000, 0.98000, 1.10000, 0.98000
    9,'9           ', 345.0000,1,   1,   1,   1,1.02621, -10.6440, 1.06000, 0.92000, 1.06000, 0.92000
   10,'10          ', 138.0000,3,   1,   1,   1,1.02000,   0.0000, 1.10000, 0.98000, 1.10000, 0.98000
   11,'11          ', 138.0000,1,   1,   1,   1,1.01565,  -1.4457, 1.06000, 0.92000, 1.06000, 0.92000
   12,'12          ', 138.0000,1,   1,   1,   1,1.01438,  -2.4656, 1.06000, 0.92000, 1.06000, 0.92000
   13,'13          ', 345.0000,1,   1,   1,   1,1.01410,  -5.0405, 1.06000, 0.92000, 1.06000, 0.92000
   14,'14          ', 230.0000,1,   1,   1,   1,1.00812, -13.9631, 1.06000, 0.92000, 1.06000, 0.92000
   15,'15          ', 230.0000,1,   1,   1,   1,0.99054, -17.9847, 1.06000, 0.92000, 1.06000, 0.92000
   16,'16          ', 138.0000,1,   1,   1,   1,0.99972, -25.3503, 1.06000, 0.92000, 1.06000, 0.92000
   17,'17          ', 138.0000,1,   1,   1,   1,0.99183, -27.0627, 1.06000, 0.92000, 1.06000, 0.92000
   18,'18          ', 138.0000,1,   1,   1,   1,0.99289, -20.8148, 1.06000, 0.92000, 1.06000, 0.92000
   19,'19          ', 138.0000,1,   1,   1,   1,0.99432, -21.9553, 1.06000, 0.92000, 1.06000, 0.92000
   20,'20          ',  69.0000,1,   1,   1,   1,0.98963, -13.3430, 1.06000, 0.92000, 1.06000, 0.92000
   21,'21          ', 138.0000,1,   1,   1,   1,1.00159, -29.1198, 1.06000, 0.92000, 1.06000, 0.92000
   22,'22          ', 230.0000,1,   1,   1,   1,0.99548, -15.7175, 1.06000, 0.92000, 1.06000, 0.92000
   23,'23          ', 230.0000,1,   1,   1,   1,1.00138, -14.7467, 1.06000, 0.92000, 1.06000, 0.92000
   24,'24          ', 230.0000,2,   1,   1,   1,1.02000, -17.9169, 1.10000, 0.98000, 1.10000, 0.98000
   25,'25          ', 230.0000,1,   1,   1,   1,1.00844, -17.0945, 1.06000, 0.92000, 1.06000, 0.92000
   26,'26          ', 345.0000,2,   1,   1,   1,1.02000, -24.4322, 1.10000, 0.98000, 1.10000, 0.98000
   27,'27          ', 230.0000,1,   1,   1,   1,1.00239, -28.9962, 1.06000, 0.92000, 1.06000, 0.92000
   28,'28          ', 138.0000,2,   1,   1,   1,1.02000,  -3.4399, 1.10000, 0.98000, 1.10000, 0.98000
   29,'29          ', 138.0000,1,   1,   1,   1,1.00778,   6.5607, 1.06000, 0.92000, 1.06000, 0.92000
   30,'30          ',  14.0000,2,   1,   1,   1,1.02000, -13.9642, 1.10000, 0.98000, 1.10000, 0.98000
   31,'31          ',  14.0000,2,   1,   1,   1,1.02000,   0.2722, 1.10000, 0.98000, 1.10000, 0.98000
   32,'32          ',  14.0000,2,   1,   1,   1,1.02000,   6.0825, 1.10000, 0.98000, 1.10000, 0.98000
   33,'33          ',  14.0000,2,   1,   1,   1,1.02000, -19.2167, 1.10000, 0.98000, 1.10000, 0.98000
   34,'34          ',  14.0000,2,   1,   1,   1,1.02000,  -4.3758, 1.10000, 0.98000, 1.10000, 0.98000
   35,'35          ',  14.0000,2,   1,   1,   1,1.02000,  -6.6541, 1.10000, 0.98000, 1.10000, 0.98000
   36,'36          ',  14.0000,2,   1,   1,   1,1.02000,  -7.5127, 1.10000, 0.98000, 1.10000, 0.98000
   37,'37          ',  14.0000,2,   1,   1,   1,1.02000, -11.1915, 1.10000, 0.98000, 1.10000, 0.98000
   38,'38          ',  14.0000,2,   1,   1,   1,1.02000,  12.6552, 1.10000, 0.98000, 1.10000, 0.98000
   39,'39          ', 345.0000,1,   1,   1,   1,1.01319, -22.8390, 1.06000, 0.92000, 1.06000, 0.92000
   40,'40          ', 345.0000,1,   1,   1,   1,1.00627, -26.3510, 1.06000, 0.92000, 1.06000, 0.92000
   41,'41          ', 345.0000,1,   1,   1,   1,1.00952, -28.4386, 1.06000, 0.92000, 1.06000, 0.92000
   42,'42          ', 345.0000,1,   1,   1,   1,1.00742, -22.4806, 1.06000, 0.92000, 1.06000, 0.92000
   43,'43          ', 345.0000,1,   1,   1,   1,1.01409, -25.0857, 1.06000, 0.92000, 1.06000, 0.92000
   44,'44          ', 230.0000,1,   1,   1,   1,1.00705, -11.8303, 1.06000, 0.92000, 1.06000, 0.92000
   45,'45          ', 345.0000,1,   1,   1,   1,1.01224,  -9.8452, 1.06000, 0.92000, 1.06000, 0.92000
   46,'46          ', 138.0000,1,   1,   1,   1,0.98725, -19.3659, 1.06000, 0.92000, 1.06000, 0.92000
   47,'47          ', 138.0000,1,   1,   1,   1,0.97075, -26.4653, 1.06000, 0.92000, 1.06000, 0.92000
   48,'48          ', 345.0000,1,   1,   1,   1,0.98769, -20.8809, 1.06000, 0.92000, 1.06000, 0.92000
   49,'49          ', 138.0000,2,   1,   1,   1,1.02000, -10.8786, 1.10000, 0.98000, 1.10000, 0.98000
   50,'50          ', 138.0000,1,   1,   1,   1,0.98431, -17.9988, 1.06000, 0.92000, 1.06000, 0.92000
   51,'51          ', 138.0000,1,   1,   1,   1,0.97424, -21.9824, 1.06000, 0.92000, 1.06000, 0.92000
   52,'52          ', 345.0000,2,   1,   1,   1,1.02000,  -8.1127, 1.10000, 0.98000, 1.10000, 0.98000
   53,'53          ', 138.0000,1,   1,   1,   1,0.97098, -21.4810, 1.06000, 0.92000, 1.06000, 0.92000
   54,'54          ', 230.0000,2,   1,   1,   1,1.02000,  -7.5518, 1.10000, 0.98000, 1.10000, 0.98000
   55,'55          ', 230.0000,1,   1,   1,   1,1.00115, -13.6364, 1.06000, 0.92000, 1.06000, 0.92000
   56,'56          ', 345.0000,2,   1,   1,   1,1.02000, -13.8096, 1.10000, 0.98000, 1.10000, 0.98000
   57,'57          ', 138.0000,1,   1,   1,   1,0.97975, -24.9032, 1.06000, 0.92000, 1.06000, 0.92000
   58,'58          ', 345.0000,1,   1,   1,   1,0.98953, -15.0526, 1.06000, 0.92000, 1.06000, 0.92000
   59,'59          ', 345.0000,1,   1,   1,   1,1.00489, -17.8831, 1.06000, 0.92000, 1.06000, 0.92000
   60,'60          ', 138.0000,1,   1,   1,   1,0.98514, -24.9369, 1.06000, 0.92000, 1.06000, 0.92000
   61,'61          ', 230.0000,1,   1,   1,   1,0.99618, -20.8267, 1.06000, 0.92000, 1.06000, 0.92000
   62,'62          ', 345.0000,1,   1,   1,   1,0.97816, -16.4136, 1.06000, 0.92000, 1.06000, 0.92000
   63,'63          ', 138.0000,1,   1,   1,   1,0.97886, -25.1060, 1.06000, 0.92000, 1.06000, 0.92000
   64,'64          ', 138.0000,1,   1,   1,   1,0.98775, -21.0548, 1.06000, 0.92000, 1.06000, 0.92000
   65,'65          ', 138.0000,1,   1,   1,   1,0.99357, -15.5445, 1.06000, 0.92000, 1.06000, 0.92000
   66,'66          ', 345.0000,1,   1,   1,   1,0.99473, -14.8279, 1.06000, 0.92000, 1.06000, 0.92000
   67,'67          ', 138.0000,1,   1,   1,   1,0.96478, -21.9797, 1.06000, 0.92000, 1.06000, 0.92000
   68,'68          ', 138.0000,1,   1,   1,   1,0.97416, -19.6143, 1.06000, 0.92000, 1.06000, 0.92000
   69,'69          ', 345.0000,2,   1,   1,   1,1.02000,  -4.9739, 1.10000, 0.98000, 1.10000, 0.98000
   70,'70          ', 138.0000,1,   1,   1,   1,0.99053,  -6.6809, 1.06000, 0.92000, 1.06000, 0.92000
   71,'71          ', 345.0000,1,   1,   1,   1,1.00426, -14.0309, 1.06000, 0.92000, 1.06000, 0.92000
   72,'72          ', 138.0000,2,   1,   1,   1,0.97876, -21.8887, 1.10000, 0.98000, 1.10000, 0.98000
   73,'73          ', 138.0000,1,   1,   1,   1,0.97592, -22.1228, 1.06000, 0.92000, 1.06000, 0.92000
   74,'74          ', 345.0000,1,   1,   1,   1,0.99454, -16.6209, 1.06000, 0.92000, 1.06000, 0.92000
   75,'75          ', 138.0000,1,   1,   1,   1,0.98587, -21.2873, 1.06000, 0.92000, 1.06000, 0.92000
   76,'76          ', 345.0000,2,   1,   1,   1,1.02000, -12.5843, 1.10000, 0.98000, 1.10000, 0.98000
   77,'77          ', 138.0000,1,   1,   1,   1,1.00618,  -6.0046, 1.06000, 0.92000, 1.06000, 0.92000
   78,'78          ', 345.0000,2,   1,   1,   1,1.02000, -15.5077, 1.10000, 0.98000, 1.10000, 0.98000
   79,'79          ', 345.0000,1,   1,   1,   1,1.02641, -18.6698, 1.06000, 0.92000, 1.06000, 0.92000
   80,'80          ', 345.0000,2,   1,   1,   1,1.02000,  -4.6340, 1.10000, 0.98000, 1.10000, 0.98000
   81,'81          ', 345.0000,1,   1,   1,   1,1.01630,  -5.9604, 1.06000, 0.92000, 1.06000, 0.92000
   82,'82          ', 345.0000,2,   1,   1,   1,1.02000,  -3.2403, 1.10000, 0.98000, 1.10000, 0.98000
   83,'83          ', 345.0000,1,   1,   1,   1,1.01934,  -5.0078, 1.06000, 0.92000, 1.06000, 0.92000
   84,'84          ', 138.0000,2,   1,   1,   1,1.02000,  -0.2240, 1.10000, 0.98000, 1.10000, 0.98000
   85,'85          ', 230.0000,1,   1,   1,   1,1.00435, -12.9567, 1.06000, 0.92000, 1.06000, 0.92000
   86,'86          ', 138.0000,1,   1,   1,   1,1.00078, -12.1797, 1.06000, 0.92000, 1.06000, 0.92000
   87,'87          ', 345.0000,1,   1,   1,   1,1.03129, -15.4463, 1.06000, 0.92000, 1.06000, 0.92000
   88,'88          ', 138.0000,1,   1,   1,   1,1.01182,  -5.6217, 1.06000, 0.92000, 1.06000, 0.92000
   89,'89          ', 138.0000,1,   1,   1,   1,1.00431, -11.8362, 1.06000, 0.92000, 1.06000, 0.92000
   90,'90          ', 230.0000,1,   1,   1,   1,0.98601, -15.9318, 1.06000, 0.92000, 1.06000, 0.92000
   91,'91          ', 230.0000,1,   1,   1,   1,0.98657, -19.0889, 1.06000, 0.92000, 1.06000, 0.92000
   92,'92          ', 345.0000,1,   1,   1,   1,0.98826, -21.3245, 1.06000, 0.92000, 1.06000, 0.92000
   93,'93          ', 345.0000,1,   1,   1,   1,0.98969, -21.6086, 1.06000, 0.92000, 1.06000, 0.92000
   94,'94          ', 138.0000,1,   1,   1,   1,0.99521, -24.2436, 1.06000, 0.92000, 1.06000, 0.92000
   95,'95          ', 138.0000,1,   1,   1,   1,0.98632, -25.9406, 1.06000, 0.92000, 1.06000, 0.92000
   96,'96          ', 138.0000,1,   1,   1,   1,0.98559, -25.7843, 1.06000, 0.92000, 1.06000, 0.92000
   97,'97          ', 345.0000,1,   1,   1,   1,0.99490, -22.3538, 1.06000, 0.92000, 1.06000, 0.92000
   98,'98          ', 345.0000,1,   1,   1,   1,1.01219, -22.2164, 1.06000, 0.92000, 1.06000, 0.92000
   99,'99          ', 345.0000,1,   1,   1,   1,0.99387, -23.5259, 1.06000, 0.92000, 1.06000, 0.92000
  100,'100         ', 138.0000,1,   1,   1,   1,0.98434, -16.1857, 1.06000, 0.92000, 1.06000, 0.92000
  101,'101         ', 345.0000,1,   1,   1,   1,0.98753, -22.2272, 1.06000, 0.92000, 1.06000, 0.92000
  102,'102         ', 138.0000,1,   1,   1,   1,0.98538, -25.9014, 1.06000, 0.92000, 1.06000, 0.92000
  103,'103         ', 138.0000,2,   1,   1,   1,1.02000, -19.2576, 1.10000, 0.98000, 1.10000, 0.98000
  104,'104         ', 138.0000,1,   1,   1,   1,0.99162, -27.1363, 1.06000, 0.92000, 1.06000, 0.92000
  105,'105         ', 138.0000,1,   1,   1,   1,0.99113, -24.4962, 1.06000, 0.92000, 1.06000, 0.92000
  106,'106         ', 138.0000,1,   1,   1,   1,0.98631, -27.0129, 1.06000, 0.92000, 1.06000, 0.92000
  107,'107         ', 138.0000,1,   1,   1,   1,0.99132, -26.5560, 1.06000, 0.92000, 1.06000, 0.92000
  108,'108         ', 230.0000,1,   1,   1,   1,0.99751, -27.4096, 1.06000, 0.92000, 1.06000, 0.92000
  109,'109         ', 138.0000,1,   1,   1,   1,0.98995, -27.0794, 1.06000, 0.92000, 1.06000, 0.92000
  110,'110         ', 138.0000,1,   1,   1,   1,0.98330, -23.1662, 1.06000, 0.92000, 1.06000, 0.92000
  111,'111         ', 345.0000,1,   1,   1,   1,0.99699, -23.5644, 1.06000, 0.92000, 1.06000, 0.92000
  112,'112         ', 138.0000,1,   1,   1,   1,0.99928, -31.5462, 1.06000, 0.92000, 1.06000, 0.92000
  113,'113         ', 138.0000,1,   1,   1,   1,0.99887, -33.0892, 1.06000, 0.92000, 1.06000, 0.92000
  114,'114         ', 138.0000,1,   1,   1,   1,0.98927, -26.1193, 1.06000, 0.92000, 1.06000, 0.92000
  115,'115         ', 345.0000,1,   1,   1,   1,0.99026, -20.5333, 1.06000, 0.92000, 1.06000, 0.92000
  116,'116         ', 230.0000,1,   1,   1,   1,0.99707, -22.2667, 1.06000, 0.92000, 1.06000, 0.92000
  117,'117         ', 138.0000,1,   1,   1,   1,0.98632, -23.0168, 1.06000, 0.92000, 1.06000, 0.92000
  118,'118         ', 138.0000,1,   1,   1,   1,0.99275, -25.1749, 1.06000, 0.92000, 1.06000, 0.92000
  119,'119         ', 138.0000,1,   1,   1,   1,0.99015, -26.3093, 1.06000, 0.92000, 1.06000, 0.92000
  120,'120         ', 230.0000,2,   1,   1,   1,1.02000, -21.9172, 1.10000, 0.98000, 1.10000, 0.98000
  121,'121         ', 230.0000,1,   1,   1,   1,1.01196, -22.6795, 1.06000, 0.92000, 1.06000, 0.92000
  122,'122         ', 138.0000,1,   1,   1,   1,0.97725, -26.3495, 1.06000, 0.92000, 1.06000, 0.92000
  123,'123         ', 230.0000,1,   1,   1,   1,0.99810, -21.1036, 1.06000, 0.92000, 1.06000, 0.92000
  124,'124         ', 230.0000,1,   1,   1,   1,0.99992, -28.9042, 1.06000, 0.92000, 1.06000, 0.92000
  125,'125         ', 138.0000,1,   1,   1,   1,1.00228, -29.9541, 1.06000, 0.92000, 1.06000, 0.92000
  126,'126         ', 230.0000,1,   1,   1,   1,0.99841, -26.7488, 1.06000, 0.92000, 1.06000, 0.92000
  127,'127         ', 230.0000,1,   1,   1,   1,0.99589, -27.2351, 1.06000, 0.92000, 1.06000, 0.92000
  128,'128         ', 138.0000,2,   1,   1,   1,1.02000, -24.1736, 1.10000, 0.98000, 1.10000, 0.98000
  129,'129         ', 138.0000,1,   1,   1,   1,0.99770, -31.2212, 1.06000, 0.92000, 1.06000, 0.92000
  130,'130         ', 138.0000,2,   1,   1,   1,1.02000, -25.9292, 1.10000, 0.98000, 1.10000, 0.98000
  131,'131         ', 138.0000,1,   1,   1,   1,0.99882, -31.5755, 1.06000, 0.92000, 1.06000, 0.92000
  132,'132         ', 230.0000,1,   1,   1,   1,1.00232, -25.5730, 1.06000, 0.92000, 1.06000, 0.92000
  133,'133         ', 230.0000,1,   1,   1,   1,1.00213, -23.5034, 1.06000, 0.92000, 1.06000, 0.92000
  134,'134         ', 230.0000,1,   1,   1,   1,0.99858, -26.8267, 1.06000, 0.92000, 1.06000, 0.92000
  135,'135         ', 345.0000,1,   1,   1,   1,1.00952, -25.2136, 1.06000, 0.92000, 1.06000, 0.92000
  136,'136         ', 138.0000,1,   1,   1,   1,0.99115, -26.4198, 1.06000, 0.92000, 1.06000, 0.92000
  137,'137         ', 345.0000,1,   1,   1,   1,1.01372, -24.2701, 1.06000, 0.92000, 1.06000, 0.92000
  138,'138         ', 345.0000,1,   1,   1,   1,0.99471, -23.7669, 1.06000, 0.92000, 1.06000, 0.92000
  139,'139         ', 345.0000,1,   1,   1,   1,1.00661, -18.0207, 1.06000, 0.92000, 1.06000, 0.92000
  140,'140         ', 138.0000,1,   1,   1,   1,0.99404, -13.7770, 1.06000, 0.92000, 1.06000, 0.92000
  141,'141         ', 345.0000,2,   1,   1,   1,1.02000,  -8.0629, 1.10000, 0.98000, 1.10000, 0.98000
  142,'142         ', 230.0000,1,   1,   1,   1,1.00201, -28.3047, 1.06000, 0.92000, 1.06000, 0.92000
  143,'143         ', 230.0000,2,   1,   1,   1,1.00286, -22.1738, 1.10000, 0.98000, 1.10000, 0.98000
  144,'144         ', 230.0000,1,   1,   1,   1,0.98712, -24.2989, 1.06000, 0.92000, 1.06000, 0.92000
  145,'145         ', 138.0000,1,   1,   1,   1,0.98006, -28.7124, 1.06000, 0.92000, 1.06000, 0.92000
  146,'146         ', 345.0000,2,   1,   1,   1,1.01973, -23.3257, 1.10000, 0.98000, 1.10000, 0.98000
  147,'147         ', 138.0000,1,   1,   1,   1,0.99475, -27.4989, 1.06000, 0.92000, 1.06000, 0.92000
  148,'148         ', 345.0000,1,   1,   1,   1,0.98998, -21.2160, 1.06000, 0.92000, 1.06000, 0.92000
  149,'149         ', 138.0000,2,   1,   1,   1,1.02000, -26.8188, 1.10000, 0.98000, 1.10000, 0.98000
  150,'150         ', 345.0000,1,   1,   1,   1,0.98459, -23.1312, 1.06000, 0.92000, 1.06000, 0.92000
  151,'151         ', 345.0000,1,   1,   1,   1,1.01641, -23.9430, 1.06000, 0.92000, 1.06000, 0.92000
  152,'152         ', 138.0000,1,   1,   1,   1,0.99790, -31.7663, 1.06000, 0.92000, 1.06000, 0.92000
  153,'153         ', 345.0000,1,   1,   1,   1,1.00751, -25.6267, 1.06000, 0.92000, 1.06000, 0.92000
  154,'154         ', 230.0000,1,   1,   1,   1,0.99663, -23.0452, 1.06000, 0.92000, 1.06000, 0.92000
  155,'155         ', 138.0000,1,   1,   1,   1,0.98216, -23.8481, 1.06000, 0.92000, 1.06000, 0.92000
  156,'156         ', 345.0000,1,   1,   1,   1,1.00195, -14.9423, 1.06000, 0.92000, 1.06000, 0.92000
  157,'157         ', 138.0000,2,   1,   1,   1,1.02000, -15.8987, 1.10000, 0.98000, 1.10000, 0.98000
  158,'158         ', 138.0000,1,   1,   1,   1,0.98708, -22.6561, 1.06000, 0.92000, 1.06000, 0.92000
  159,'159         ', 345.0000,1,   1,   1,   1,1.01298, -25.3208, 1.06000, 0.92000, 1.06000, 0.92000
  160,'160         ', 230.0000,1,   1,   1,   1,0.98209, -29.0246, 1.06000, 0.92000, 1.06000, 0.92000
  161,'161         ', 138.0000,1,   1,   1,   1,0.99412, -21.8023, 1.06000, 0.92000, 1.06000, 0.92000
  162,'162         ', 345.0000,2,   1,   1,   1,1.02000, -15.2094, 1.10000, 0.98000, 1.10000, 0.98000
  163,'163         ', 230.0000,1,   1,   1,   1,1.00456, -21.3545, 1.06000, 0.92000, 1.06000, 0.92000
  164,'164         ', 138.0000,1,   1,   1,   1,0.97516, -23.0948, 1.06000, 0.92000, 1.06000, 0.92000
  165,'165         ', 230.0000,2,   1,   1,   1,1.02000, -13.0362, 1.10000, 0.98000, 1.10000, 0.98000
  166,'166         ', 138.0000,2,   1,   1,   1,1.02000, -16.1010, 1.10000, 0.98000, 1.10000, 0.98000
  167,'167         ', 345.0000,1,   1,   1,   1,1.01138, -16.5049, 1.06000, 0.92000, 1.06000, 0.92000
  168,'168         ', 230.0000,1,   1,   1,   1,0.98720, -19.2922, 1.06000, 0.92000, 1.06000, 0.92000
  169,'169         ', 138.0000,1,   1,   1,   1,0.99473, -17.7610, 1.06000, 0.92000, 1.06000, 0.92000
  170,'170         ', 138.0000,1,   1,   1,   1,0.97930, -19.2479, 1.06000, 0.92000, 1.06000, 0.92000
  171,'171         ', 138.0000,1,   1,   1,   1,0.98072, -18.6375, 1.06000, 0.92000, 1.06000, 0.92000
  172,'172         ', 138.0000,1,   1,   1,   1,0.97580, -12.9600, 1.06000, 0.92000, 1.06000, 0.92000
  173,'173         ', 138.0000,1,   1,   1,   1,0.96572, -12.4067, 1.06000, 0.92000, 1.06000, 0.92000
  174,'174         ', 345.0000,1,   1,   1,   1,1.00453, -16.6869, 1.06000, 0.92000, 1.06000, 0.92000
  175,'175         ', 138.0000,2,   1,   1,   1,1.02000, -14.6431, 1.10000, 0.98000, 1.10000, 0.98000
  176,'176         ', 345.0000,2,   1,   1,   1,1.02000, -22.8915, 1.10000, 0.98000, 1.10000, 0.98000
  177,'177         ', 230.0000,1,   1,   1,   1,1.00353, -19.2074, 1.06000, 0.92000, 1.06000, 0.92000
  178,'178         ', 138.0000,1,   1,   1,   1,0.97469, -23.6855, 1.06000, 0.92000, 1.06000, 0.92000
  179,'179         ', 138.0000,1,   1,   1,   1,0.97319, -23.7943, 1.06000, 0.92000, 1.06000, 0.92000
  180,'180         ', 345.0000,1,   1,   1,   1,1.00425, -16.7729, 1.06000, 0.92000, 1.06000, 0.92000
  181,'181         ', 345.0000,1,   1,   1,   1,1.02760,  -9.4765, 1.06000, 0.92000, 1.06000, 0.92000
  182,'182         ', 345.0000,1,   1,   1,   1,0.99682, -16.4547, 1.06000, 0.92000, 1.06000, 0.92000
  183,'183         ', 345.0000,1,   1,   1,   1,1.00618, -12.5759, 1.06000, 0.92000, 1.06000, 0.92000
  184,'184         ', 230.0000,1,   1,   1,   1,1.00004, -11.5075, 1.06000, 0.92000, 1.06000, 0.92000
  185,'185         ', 345.0000,1,   1,   1,   1,1.00641, -12.3038, 1.06000, 0.92000, 1.06000, 0.92000
  186,'186         ', 345.0000,1,   1,   1,   1,0.99982, -13.8069, 1.06000, 0.92000, 1.06000, 0.92000
  187,'187         ', 345.0000,1,   1,   1,   1,1.01606, -10.5615, 1.06000, 0.92000, 1.06000, 0.92000
  188,'188         ', 345.0000,1,   1,   1,   1,1.01503,  -4.3765, 1.06000, 0.92000, 1.06000, 0.92000
  189,'189         ', 345.0000,1,   1,   1,   1,1.01490,  -5.1027, 1.06000, 0.92000, 1.06000, 0.92000
  190,'190         ', 345.0000,1,   1,   1,   1,1.01108, -11.5574, 1.06000, 0.92000, 1.06000, 0.92000
  191,'191         ', 345.0000,1,   1,   1,   1,1.01155, -16.8247, 1.06000, 0.92000, 1.06000, 0.92000
  192,'192         ', 230.0000,1,   1,   1,   1,1.00087, -22.8313, 1.06000, 0.92000, 1.06000, 0.92000
  193,'193         ', 345.0000,1,   1,   1,   1,1.00884, -21.0952, 1.06000, 0.92000, 1.06000, 0.92000
  194,'194         ', 345.0000,1,   1,   1,   1,1.01007, -22.6240, 1.06000, 0.92000, 1.06000, 0.92000
  195,'195         ', 230.0000,1,   1,   1,   1,1.00160, -25.4699, 1.06000, 0.92000, 1.06000, 0.92000
  196,'196         ', 345.0000,1,   1,   1,   1,0.99866, -23.3707, 1.06000, 0.92000, 1.06000, 0.92000
  197,'197         ', 230.0000,1,   1,   1,   1,1.00500, -26.7638, 1.06000, 0.92000, 1.06000, 0.92000
  198,'198         ', 345.0000,1,   1,   1,   1,1.00292, -24.6927, 1.06000, 0.92000, 1.06000, 0.92000
  199,'199         ', 345.0000,1,   1,   1,   1,0.99429, -19.5312, 1.06000, 0.92000, 1.06000, 0.92000
  200,'200         ', 345.0000,1,   1,   1,   1,1.00786, -19.2355, 1.06000, 0.92000, 1.06000, 0.92000
...
0 / END OF BUS DATA, BEGIN LOAD DATA
    1,'1 ',1,   1,   1,     0.000,     0.000,     0.000,     0.000,     0.000,     0.000,   1,1
    2,'1 ',1,   1,   1,   125.804,    41.258,     0.000,     0.000,     0.000,     0.000,   1,1
    3,'1 ',1,   1,   1,     0.000,     0.000,     0.000,     0.000,     0.000,     0.000,   1,1
    4,'1 ',1,   1,   1,   116.473,    32.983,     0.000,     0.000,     0.000,     0.000,   1,1
    5,'1 ',1,   1,   1,   132.843,    47.256,     0.000,     0.000,     0.000,     0.000,   1,1
    6,'1 ',1,   1,   1,   120.024,    38.737,     0.000,     0.000,     0.000,     0.000,   1,1
    7,'1 ',1,   1,   1,   200.464,    69.723,     0.000,     0.000,     0.000,     0.000,   1,1
    8,'1 ',1,   1,   1,   165.685,    48.173,     0.000,     0.000,     0.000,     0.000,   1,1
    9,'1 ',1,   1,   1,     0.000,     0.000,     0.000,     0.000,     0.000,     0.000,   1,1
   10,'1 ',1,   1,   1,   123.489,    40.529,     0.000,     0.000,     0.000,     0.000,   1,1
   11,'1 ',1,   1,   1,     0.000,     0.000,     0.000,     0.000,     0.000,     0.000,   1,1
   12,'1 ',1,   1,   1,     3.686,     1.361,     0.000,     0.000,     0.000,     0.000,   1,1
   13,'1 ',1,   1,   1,     0.000,     0.000,     0.000,     0.000,     0.000,     0.000,   1,1
   14,'1 ',1,   1,   1,   161.433,    54.601,     0.000,     0.000,     0.000,     0.000,   1,1
   15,'1 ',1,   1,   1,   196.230,    57.026,     0.000,     0.000,     0.000,     0.000,   1,1
   16,'1 ',1,   1,   1,   226.811,    62.259,     0.000,     0.000,     0.000,     0.000,   1,1
   17,'1 ',1,   1,   1,   120.859,    32.634,     0.000,     0.000,     0.000,     0.000,   1,1
   18,'1 ',1,   1,   1,   138.255,    41.530,     0.000,     0.000,     0.000,     0.000,   1,1
   19,'1 ',1,   1,   1,   143.288,    36.675,     0.000,     0.000,     0.000,     0.000,   1,1
   20,'1 ',1,   1,   1,   139.709,    38.001,     0.000,     0.000,     0.000,     0.000,   1,1
   21,'1 ',1,   1,   1,   199.211,    51.943,     0.000,     0.000,     0.000,     0.000,   1,1
   22,'1 ',1,   1,   1,   178.288,    50.827,     0.000,     0.000,     0.000,     0.000,   1,1
   23,'1 ',1,   1,   1,   134.318,    43.910,     0.000,     0.000,     0.000,     0.000,   1,1
   24,'1 ',1,   1,   1,   163.833,    56.354,     0.000,     0.000,     0.000,     0.000,   1,1
   25,'1 ',1,   1,   1,    86.932,    27.992,     0.000,     0.000,     0.000,     0.000,   1,1
   26,'1 ',1,   1,   1,   105.210,    29.561,     0.000,     0.000,     0.000,     0.000,   1,1
   27,'1 ',1,   1,   1,   132.773,    42.437,     0.000,     0.000,     0.000,     0.000,   1,1
   28,'1 ',1,   1,   1,   166.574,    53.951,     0.000,     0.000,     0.000,     0.000,   1,1
   29,'1 ',1,   1,   1,   102.459,    33.021,     0.000,     0.000,     0.000,     0.000,   1,1
   30,'1 ',1,   1,   1,     0.000,     0.000,     0.000,     0.000,     0.000,     0.000,   1,1
   31,'1 ',1,   1,   1,     0.000,     0.000,     0.000,     0.000,     0.000,     0.000,   1,1
   32,'1 ',1,   1,   1,     0.000,     0.000,     0.000,     0.000,     0.000,     0.000,   1,1
   33,'1 ',1,   1,   1,   185.966,    45.868,     0.000,     0.000,     0.000,     0.000,   1,1
   34,'1 ',1,   1,   1,   114.380,    35.188,     0.000,     0.000,     0.000,     0.000,   1,1
   35,'1 ',1,   1,   1,     0.000,     0.000,     0.000,     0.000,     0.000,     0.000,   1,1
   36,'1 ',1,   1,   1,     0.000,     0.000,     0.000,     0.000,     0.000,     0.000,   1,1
   37,'1 ',1,   1,   1,     0.000,     0.000,     0.000,     0.000,     0.000,     0.000,   1,1
   38,'1 ',1,   1,   1,     0.000,     0.000,     0.000,     0.000,     0.000,     0.000,   1,1
   39,'1 ',1,   1,   1,    99.530,    31.435,     0.000,     0.000,     0.000,     0.000,   1,1
   40,'1 ',1,   1,   1,   100.073,    29.372,     0.000,     0.000,     0.000,     0.000,   1,1
   41,'1 ',1,   1,   1,   130.186,    39.275,     0.000,     0.000,     0.000,     0.000,   1,1
   42,'1 ',1,   1,   1,   144.636,    44.043,     0.000,     0.000,     0.000,     0.000,   1,1
   43,'1 ',1,   1,   1,   133.629,    41.618,     0.000,     0.000,     0.000,     0.000,   1,1
   44,'1 ',1,   1,   1,   114.553,    38.187,     0.000,     0.000,     0.000,     0.000,   1,1
   45,'1 ',1,   1,   1,   167.518,    54.536,     0.000,     0.000,     0.000,     0.000,   1,1
   46,'1 ',1,   1,   1,   150.199,    45.902,     0.000,     0.000,     0.000,     0.000,   1,1
   47,'1 ',1,   1,   1,   134.347,    38.327,     0.000,     0.000,     0.000,     0.000,   1,1
   48,'1 ',1,   1,   1,   162.417,    46.327,     0.000,     0.000,     0.000,     0.000,   1,1
   49,'1 ',1,   1,   1,   104.153,    33.190,     0.000,     0.000,     0.000,     0.000,   1,1
   50,'1 ',1,   1,   1,   157.972,    45.088,     0.000,     0.000,     0.000,     0.000,   1,1
   51,'1 ',1,   1,   1,   130.976,    45.572,     0.000,     0.000,     0.000,     0.000,   1,1
   52,'1 ',1,   1,   1,   169.474,    55.051,     0.000,     0.000,     0.000,     0.000,   1,1
   53,'1 ',1,   1,   1,   249.855,    77.392,     0.000,     0.000,     0.000,     0.000,   1,1
   54,'1 ',1,   1,   1,   110.804,    39.765,     0.000,     0.000,     0.000,     0.000,   1,1
   55,'1 ',1,   1,   1,   161.135,    48.000,     0.000,     0.000,     0.000,     0.000,   1,1
   56,'1 ',1,   1,   1,   182.634,    53.879,     0.000,     0.000,     0.000,     0.000,   1,1
   57,'1 ',1,   1,   1,    96.256,    32.040,     0.000,     0.000,     0.000,     0.000,   1,1
   58,'1 ',1,   1,   1,   205.598,    63.932,     0.000,     0.000,     0.000,     0.000,   1,1
   59,'1 ',1,   1,   1,   127.127,    40.076,     0.000,     0.000,     0.000,     0.000,   1,1
   60,'1 ',1,   1,   1,   145.289,    46.013,     0.000,     0.000,     0.000,     0.000,   1,1
   61,'1 ',1,   1,   1,   173.417,    50.531,     0.000,     0.000,     0.000,     0.000,   1,1
   62,'1 ',1,   1,   1,   161.964,    55.922,     0.000,     0.000,     0.000,     0.000,   1,1
   63,'1 ',1,   1,   1,   124.459,    46.012,     0.000,     0.000,     0.000,     0.000,   1,1
   64,'1 ',1,   1,   1,   263.143,    80.553,     0.000,     0.000,     0.000,     0.000,   1,1
   65,'1 ',1,   1,   1,   107.809,    40.749,     0.000,     0.000,     0.000,     0.000,   1,1
   66,'1 ',1,   1,   1,   124.566,    45.105,     0.000,     0.000,     0.000,     0.000,   1,1
   67,'1 ',1,   1,   1,   147.965,    43.357,     0.000,     0.000,     0.000,     0.000,   1,1
   68,'1 ',1,   1,   1,   177.423,    59.438,     0.000,     0.000,     0.000,     0.000,   1,1
   69,'1 ',1,   1,   1,    99.424,    38.522,     0.000,     0.000,     0.000,     0.000,   1,1
   70,'1 ',1,   1,   1,   140.186,    47.021,     0.000,     0.000,     0.000,     0.000,   1,1
   71,'1 ',1,   1,   1,   109.022,    39.728,     0.000,     0.000,     0.000,     0.000,   1,1
   72,'1 ',1,   1,   1,    96.338,    35.881,     0.000,     0.000,     0.000,     0.000,   1,1
   73,'1 ',1,   1,   1,   117.993,    37.526,     0.000,     0.000,     0.000,     0.000,   1,1
   74,'1 ',1,   1,   1,   128.999,    39.366,     0.000,     0.000,     0.000,     0.000,   1,1
   75,'1 ',1,   1,   1,   137.395,    41.006,     0.000,     0.000,     0.000,     0.000,   1,1
   76,'1 ',1,   1,   1,   187.260,    48.397,     0.000,     0.000,     0.000,     0.000,   1,1
   77,'1 ',1,   1,   1,   103.220,    29.365,     0.000,     0.000,     0.000,     0.000,   1,1
   78,'1 ',1,   1,   1,   126.849,    37.768,     0.000,     0.000,     0.000,     0.000,   1,1
   79,'1 ',1,   1,   1,   169.248,    45.836,     0.000,     0.000,     0.000,     0.000,   1,1
   80,'1 ',1,   1,   1,   135.666,    36.447,     0.000,     0.000,     0.000,     0.000,   1,1
   81,'1 ',1,   1,   1,   146.157,    34.761,     0.000,     0.000,     0.000,     0.000,   1,1
   82,'1 ',1,   1,   1,   102.366,    29.208,     0.000,     0.000,     0.000,     0.000,   1,1
   83,'1 ',1,   1,   1,   107.445,    30.985,     0.000,     0.000,     0.000,     0.000,   1,1
   84,'1 ',1,   1,   1,    82.593,    26.686,     0.000,     0.000,     0.000,     0.000,   1,1
   85,'1 ',1,   1,   1,    91.311,    26.440,     0.000,     0.000,     0.000,     0.000,   1,1
   86,'1 ',1,   1,   1,   140.156,    34.164,     0.000,     0.000,     0.000,     0.000,   1,1
   87,'1 ',1,   1,   1,   158.513,    40.357,     0.000,     0.000,     0.000,     0.000,   1,1
   88,'1 ',1,   1,   1,   126.526,    42.345,     0.000,     0.000,     0.000,     0.000,   1,1
   89,'1 ',1,   1,   1,    99.918,    32.360,     0.000,     0.000,     0.000,     0.000,   1,1
   90,'1 ',1,   1,   1,   112.256,    37.128,     0.000,     0.000,     0.000,     0.000,   1,1
   91,'1 ',1,   1,   1,   135.130,    43.192,     0.000,     0.000,     0.000,     0.000,   1,1
   92,'1 ',1,   1,   1,   126.991,    33.334,     0.000,     0.000,     0.000,     0.000,   1,1
   93,'1 ',1,   1,   1,   142.845,    42.789,     0.000,     0.000,     0.000,     0.000,   1,1
   94,'1 ',1,   1,   1,   176.441,    53.779,     0.000,     0.000,     0.000,     0.000,   1,1
   95,'1 ',1,   1,   1,   160.261,    46.978,     0.000,     0.000,     0.000,     0.000,   1,1
   96,'1 ',1,   1,   1,   182.881,    52.788,     0.000,     0.000,     0.000,     0.000,   1,1
   97,'1 ',1,   1,   1,   180.612,    36.423,     0.000,     0.000,     0.000,     0.000,   1,1
   98,'1 ',1,   1,   1,   187.786,    47.302,     0.000,     0.000,     0.000,     0.000,   1,1
   99,'1 ',1,   1,   1,   179.499,    49.223,     0.000,     0.000,     0.000,     0.000,   1,1
  100,'1 ',1,   1,   1,   141.513,    41.864,     0.000,     0.000,     0.000,     0.000,   1,1
  101,'1 ',1,   1,   1,   133.502,    39.261,     0.000,     0.000,     0.000,     0.000,   1,1
  102,'1 ',1,   1,   1,    90.967,    36.435,     0.000,     0.000,     0.000,     0.000,   1,1
  103,'1 ',1,   1,   1,   207.397,    59.157,     0.000,     0.000,     0.000,     0.000,   1,1
  104,'1 ',1,   1,   1,   152.402,    41.635,     0.000,     0.000,     0.000,     0.000,   1,1
  105,'1 ',1,   1,   1,   115.793,    34.364,     0.000,     0.000,     0.000,     0.000,   1,1
  106,'1 ',1,   1,   1,   116.053,    35.222,     0.000,     0.000,     0.000,     0.000,   1,1
  107,'1 ',1,   1,   1,   134.315,    42.185,     0.000,     0.000,     0.000,     0.000,   1,1
  108,'1 ',1,   1,   1,   217.658,    58.987,     0.000,     0.000,     0.000,     0.000,   1,1
  109,'1 ',1,   1,   1,   164.000,    49.891,     0.000,     0.000,     0.000,     0.000,   1,1
  110,'1 ',1,   1,   1,    92.505,    34.910,     0.000,     0.000,     0.000,     0.000,   1,1
  111,'1 ',1,   1,   1,   158.773,    50.712,     0.000,     0.000,     0.000,     0.000,   1,1
  112,'1 ',1,   1,   1,   211.688,    54.722,     0.000,     0.000,     0.000,     0.000,   1,1
  113,'1 ',1,   1,   1,    90.527,    30.847,     0.000,     0.000,     0.000,     0.000,   1,1
  114,'1 ',1,   1,   1,    93.954,    32.823,     0.000,     0.000,     0.000,     0.000,   1,1
  115,'1 ',1,   1,   1,   105.146,    34.108,     0.000,     0.000,     0.000,     0.000,   1,1
  116,'1 ',1,   1,   1,   190.933,    48.933,     0.000,     0.000,     0.000,     0.000,   1,1
  117,'1 ',1,   1,   1,   146.688,    46.546,     0.000,     0.000,     0.000,     0.000,   1,1
  118,'1 ',1,   1,   1,    92.642,    29.949,     0.000,     0.000,     0.000,     0.000,   1,1
  119,'1 ',1,   1,   1,   181.739,    46.473,     0.000,     0.000,     0.000,     0.000,   1,1
  120,'1 ',1,   1,   1,   115.602,    39.214,     0.000,     0.000,     0.000,     0.000,   1,1
  121,'1 ',1,   1,   1,   138.473,    43.653,     0.000,     0.000,     0.000,     0.000,   1,1
  122,'1 ',1,   1,   1,   115.485,    38.040,     0.000,     0.000,     0.000,     0.000,   1,1
  123,'1 ',1,   1,   1,   165.909,    42.969,     0.000,     0.000,     0.000,     0.000,   1,1
  124,'1 ',1,   1,   1,   168.583,    41.976,     0.000,     0.000,     0.000,     0.000,   1,1
  125,'1 ',1,   1,   1,   175.596,    52.677,     0.000,     0.000,     0.000,     0.000,   1,1
  126,'1 ',1,   1,   1,   147.494,    38.258,     0.000,     0.000,     0.000,     0.000,   1,1
  127,'1 ',1,   1,   1,   169.216,    45.749,     0.000,     0.000,     0.000,     0.000,   1,1
  128,'1 ',1,   1,   1,   182.846,    48.091,     0.000,     0.000,     0.000,     0.000,   1,1
  129,'1 ',1,   1,   1,   140.817,    41.188,     0.000,     0.000,     0.000,     0.000,   1,1
  130,'1 ',1,   1,   1,   149.530,    45.167,     0.000,     0.000,     0.000,     0.000,   1,1
  131,'1 ',1,   1,   1,   201.821,    55.809,     0.000,     0.000,     0.000,     0.000,   1,1
  132,'1 ',1,   1,   1,   187.614,    41.178,     0.000,     0.000,     0.000,     0.000,   1,1
  133,'1 ',1,   1,   1,   123.598,    39.269,     0.000,     0.000,     0.000,     0.000,   1,1
  134,'1 ',1,   1,   1,   144.826,    41.362,     0.000,     0.000,     0.000,     0.000,   1,1
  135,'1 ',1,   1,   1,   108.616,    35.834,     0.000,     0.000,     0.000,     0.000,   1,1
  136,'1 ',1,   1,   1,   132.702,    41.733,     0.000,     0.000,     0.000,     0.000,   1,1
  137,'1 ',1,   1,   1,   107.611,    34.518,     0.000,     0.000,     0.000,     0.000,   1,1
  138,'1 ',1,   1,   1,   178.708,    48.125,     0.000,     0.000,     0.000,     0.000,   1,1
  139,'1 ',1,   1,   1,   155.208,    45.399,     0.000,     0.000,     0.000,     0.000,   1,1
  140,'1 ',1,   1,   1,   201.874,    51.276,     0.000,     0.000,     0.000,     0.000,   1,1
  141,'1 ',1,   1,   1,   183.823,    52.533,     0.000,     0.000,     0.000,     0.000,   1,1
  142,'1 ',1,   1,   1,   124.429,    43.349,     0.000,     0.000,     0.000,     0.000,   1,1
  143,'1 ',1,   1,   1,   175.156,    48.920,     0.000,     0.000,     0.000,     0.000,   1,1
  144,'1 ',1,   1,   1,   206.212,    59.821,     0.000,     0.000,     0.000,     0.000,   1,1
  145,'1 ',1,   1,   1,   162.399,    53.245,     0.000,     0.000,     0.000,     0.000,   1,1
  146,'1 ',1,   1,   1,   173.387,    52.079,     0.000,     0.000,     0.000,     0.000,   1,1
  147,'1 ',1,   1,   1,   112.898,    34.932,     0.000,     0.000,     0.000,     0.000,   1,1
  148,'1 ',1,   1,   1,   128.821,    37.989,     0.000,     0.000,     0.000,     0.000,   1,1
  149,'1 ',1,   1,   1,   212.082,    53.102,     0.000,     0.000,     0.000,     0.000,   1,1
  150,'1 ',1,   1,   1,   154.414,    46.035,     0.000,     0.000,     0.000,     0.000,   1,1
  151,'1 ',1,   1,   1,   131.995,    43.399,     0.000,     0.000,     0.000,     0.000,   1,1
  152,'1 ',1,   1,   1,   108.394,    30.523,     0.000,     0.000,     0.000,     0.000,   1,1
  153,'1 ',1,   1,   1,   124.331,    41.772,     0.000,     0.000,     0.000,     0.000,   1,1
  154,'1 ',1,   1,   1,   151.551,    47.792,     0.000,     0.000,     0.000,     0.000,   1,1
  155,'1 ',1,   1,   1,   140.290,    47.035,     0.000,     0.000,     0.000,     0.000,   1,1
  156,'1 ',1,   1,   1,   144.066,    47.611,     0.000,     0.000,     0.000,     0.000,   1,1
  157,'1 ',1,   1,   1,   144.043,    43.009,     0.000,     0.000,     0.000,     0.000,   1,1
  158,'1 ',1,   1,   1,   143.206,    37.613,     0.000,     0.000,     0.000,     0.000,   1,1
  159,'1 ',1,   1,   1,   149.714,    35.565,     0.000,     0.000,     0.000,     0.000,   1,1
  160,'1 ',1,   1,   1,   180.095,    63.083,     0.000,     0.000,     0.000,     0.000,   1,1
  161,'1 ',1,   1,   1,    97.543,    33.656,     0.000,     0.000,     0.000,     0.000,   1,1
  162,'1 ',1,   1,   1,   137.516,    43.608,     0.000,     0.000,     0.000,     0.000,   1,1
  163,'1 ',1,   1,   1,   170.174,    54.069,     0.000,     0.000,     0.000,     0.000,   1,1
  164,'1 ',1,   1,   1,   131.059,    48.792,     0.000,     0.000,     0.000,     0.000,   1,1
  165,'1 ',1,   1,   1,   139.959,    35.759,     0.000,     0.000,     0.000,     0.000,   1,1
  166,'1 ',1,   1,   1,   130.687,    39.383,     0.000,     0.000,     0.000,     0.000,   1,1
  167,'1 ',1,   1,   1,   131.220,    35.021,     0.000,     0.000,     0.000,     0.000,   1,1
  168,'1 ',1,   1,   1,    88.079,    32.340,     0.000,     0.000,     0.000,     0.000,   1,1
  169,'1 ',1,   1,   1,   134.576,    39.601,     0.000,     0.000,     0.000,     0.000,   1,1
  170,'1 ',1,   1,   1,   156.266,    47.550,     0.000,     0.000,     0.000,     0.000,   1,1
  171,'1 ',1,   1,   1,   135.867,    49.523,     0.000,     0.000,     0.000,     0.000,   1,1
  172,'1 ',1,   1,   1,   157.625,    46.246,     0.000,     0.000,     0.000,     0.000,   1,1
  173,'1 ',1,   1,   1,   139.612,    47.992,     0.000,     0.000,     0.000,     0.000,   1,1
  174,'1 ',1,   1,   1,   168.190,    54.287,     0.000,     0.000,     0.000,     0.000,   1,1
  175,'1 ',1,   1,   1,   135.713,    39.164,     0.000,     0.000,     0.000,     0.000,   1,1
  176,'1 ',1,   1,   1,   165.083,    49.911,     0.000,     0.000,     0.000,     0.000,   1,1
  177,'1 ',1,   1,   1,   233.625,    77.718,     0.000,     0.000,     0.000,     0.000,   1,1
  178,'1 ',1,   1,   1,   125.162,    39.630,     0.000,     0.000,     0.000,     0.000,   1,1
  179,'1 ',1,   1,   1,    11.679,     3.370,     0.000,     0.000,     0.000,     0.000,   1,1
  180,'1 ',1,   1,   1,    17.345,     5.070,     0.000,     0.000,     0.000,     0.000,   1,1
  181,'1 ',1,   1,   1,     0.000,     0.000,     0.000,     0.000,     0.000,     0.000,   1,1
  182,'1 ',1,   1,   1,     0.000,     0.000,     0.000,     0.000,     0.000,     0.000,   1,1
  183,'1 ',1,   1,   1,     0.000,     0.000,     0.000,     0.000,     0.000,     0.000,   1,1
  184,'1 ',1,   1,   1,     0.000,     0.000,     0.000,     0.000,     0.000,     0.000,   1,1
  185,'1 ',1,   1,   1,     0.000,     0.000,     0.000,     0.000,     0.000,     0.000,   1,1
  186,'1 ',1,   1,   1,     0.000,     0.000,     0.000,     0.000,     0.000,     0.000,   1,1
  187,'1 ',1,   1,   1,     0.000,     0.000,     0.000,     0.000,     0.000,     0.000,   1,1
  188,'1 ',1,   1,   1,     0.000,     0.000,     0.000,     0.000,     0.000,     0.000,   1,1
  189,'1 ',1,   1,   1,     0.000,     0.000,     0.000,     0.000,     0.000,     0.000,   1,1
  190,'1 ',1,   1,   1,     0.000,     0.000,     0.000,     0.000,     0.000,     0.000,   1,1
  191,'1 ',1,   1,   1,     0.000,     0.000,     0.000,     0.000,     0.000,     0.000,   1,1
  192,'1 ',1,   1,   1,     0.000,     0.000,     0.000,     0.000,     0.000,     0.000,   1,1
  193,'1 ',1,   1,   1,     0.000,     0.000,     0.000,     0.000,     0.000,     0.000,   1,1
  194,'1 ',1,   1,   1,     0.000,     0.000,     0.000,     0.000,     0.000,     0.000,   1,1
  195,'1 ',1,   1,   1,     0.000,     0.000,     0.000,     0.000,     0.000,     0.000,   1,1
  196,'1 ',1,   1,   1,     0.000,     0.000,     0.000,     0.000,     0.000,     0.000,   1,1
  197,'1 ',1,   1,   1,     0.000,     0.000,     0.000,     0.000,     0.000,     0.000,   1,1
  198,'1 ',1,   1,   1,     0.000,     0.000,     0.000,     0.000,     0.000,     0.000,   1,1
  199,'1 ',1,   1,   1,     0.000,     0.000,     0.000,     0.000,     0.000,     0.000,   1,1
  200,'1 ',1,   1,   1,     0.000,     0.000,     0.000,     0.000,     0.000,     0.000,   1,1
...
0 / END OF LOAD DATA, BEGIN FIXED SHUNT DATA
     4,' 1', 1,     0.000,    10.000
    17,' 1', 1,     0.000,    30.000
    18,' 1', 1,     0.000,    40.000
    21,' 1', 1,     0.000,    30.000
    27,' 1', 1,     0.000,    20.000
    41,' 1', 1,     0.000,    20.000
    46,' 1', 1,     0.000,    50.000
    47,' 1', 1,     0.000,    50.000
    48,' 1', 1,     0.000,    40.000
    50,' 1', 1,     0.000,    30.000
    57,' 1', 1,     0.000,    50.000
    60,' 1', 1,     0.000,    90.000
    63,' 1', 1,     0.000,    40.000
    64,' 1', 1,     0.000,    70.000
    67,' 1', 1,     0.000,    30.000
    75,' 1', 1,     0.000,    50.000
    77,' 1', 1,     0.000,    10.000
    85,' 1', 1,     0.000,    40.000
    86,' 1', 1,     0.000,    40.000
    89,' 1', 1,     0.000,    50.000
    91,' 1', 1,     0.000,    50.000
    92,' 1', 1,     0.000,    30.000
    93,' 1', 1,     0.000,    10.000
    95,' 1', 1,     0.000,    50.000
    96,' 1', 1,     0.000,    50.000
    99,' 1', 1,     0.000,    10.000
   100,' 1', 1,     0.000,    30.000
   101,' 1', 1,     0.000,    30.000
   104,' 1', 1,     0.000,    60.000
   105,' 1', 1,     0.000,    10.000
   106,' 1', 1,     0.000,    20.000
   107,' 1', 1,     0.000,    40.000
   108,' 1', 1,     0.000,    60.000
   109,' 1', 1,     0.000,    20.000
   110,' 1', 1,     0.000,    10.000
   111,' 1', 1,     0.000,    10.000
   112,' 1', 1,     0.000,    50.000
   113,' 1', 1,     0.000,    50.000
   114,' 1', 1,     0.000,    30.000
   115,' 1', 1,     0.000,    10.000
   118,' 1', 1,     0.000,    20.000
   119,' 1', 1,     0.000,    20.000
   122,' 1', 1,     0.000,    20.000
   124,' 1', 1,     0.000,    90.000
   125,' 1', 1,     0.000,    40.000
   126,' 1', 1,     0.000,    20.000
   127,' 1', 1,     0.000,    40.000
   129,' 1', 1,     0.000,    60.000
   131,' 1', 1,     0.000,    50.000
   132,' 1', 1,     0.000,    30.000
   133,' 1', 1,     0.000,    20.000
   134,' 1', 1,     0.000,    40.000
   136,' 1', 1,     0.000,    50.000
   138,' 1', 1,     0.000,    20.000
   142,' 1', 1,     0.000,    60.000
   145,' 1', 1,     0.000,    10.000
   147,' 1', 1,     0.000,    30.000
   148,' 1', 1,     0.000,    10.000
   150,' 1', 1,     0.000,    50.000
   152,' 1', 1,     0.000,    50.000
   154,' 1', 1,     0.000,    60.000
   155,' 1', 1,     0.000,    40.000
   158,' 1', 1,     0.000,    20.000
   159,' 1', 1,     0.000,    30.000
   160,' 1', 1,     0.000,    40.000
   161,' 1', 1,     0.000,    20.000
   164,' 1', 1,     0.000,    20.000
   168,' 1', 1,     0.000,    20.000
   169,' 1', 1,     0.000,    30.000
   170,' 1', 1,     0.000,    90.000
   171,' 1', 1,     0.000,    50.000
   172,' 1', 1,     0.000,    10.000
   173,' 1', 1,     0.000,    10.000
   195,' 1', 1,     0.000,    20.000
   196,' 1', 1,     0.000,    20.000
   197,' 1', 1,     0.000,    30.000
   198,' 1', 1,     0.000,    20.000
   202,' 1', 1,     0.000,    30.000
   207,' 1', 1,     0.000,    10.000
   217,' 1', 1,     0.000,    20.000
   220,' 1', 1,     0.000,    30.000
   222,' 1', 1,     0.000,    10.000
   225,' 1', 1,     0.000,    20.000
   226,' 1', 1,     0.000,    10.000
   229,' 1', 1,     0.000,    40.000
   230,' 1', 1,     0.000,    10.000
   232,' 1', 1,     0.000,    20.000
   233,' 1', 1,     0.000,    20.000
   235,' 1', 1,     0.000,    30.000
   236,' 1', 1,     0.000,    20.000
   237,' 1', 1,     0.000,    40.000
   238,' 1', 1,     0.000,    20.000
   240,' 1', 1,     0.000,    20.000
   246,' 1', 1,     0.000,    10.000
0 / END OF FIXED SHUNT DATA, BEGIN GENERATOR DATA
    1,'1 ',   272.778,   -73.391,   103.000,  -103.000,1.02000,    0,   100.000,   0.00000,   1.00000,   0.00000,   0.00000,1.00000,1,  100.0,   338.000,     3.000,   1,1.0000,   0,1.0000,   0,1.0000,   0,1.0000,1, 1.0000
    3,'1 ',   553.626,    22.076,   392.000,  -209.000,1.02000,    0,   100.000,   0.00000,   1.00000,   0.00000,   0.00000,1.00000,1,  100.0,   686.000,   298.000,   1,1.0000,   0,1.0000,   0,1.0000,   0,1.0000,0, 1.0000
    7,'1 ',   543.942,   210.464,   385.000,  -205.000,1.02000,    0,   100.000,   0.00000,   1.00000,   0.00000,   0.00000,1.00000,1,  100.0,   674.000,   139.000,   1,1.0000,   0,1.0000,   0,1.0000,   0,1.0000,0, 1.0000
    8,'1 ',   493.098,   169.772,   349.000,  -186.000,1.02000,    0,   100.000,   0.00000,   1.00000,   0.00000,   0.00000,1.00000,1,  100.0,   611.000,   189.000,   1,1.0000,   0,1.0000,   0,1.0000,   0,1.0000,0, 1.0000
   10,'1 ',  2167.769,   326.831,  1298.000,  -692.000,1.02000,    0,   100.000,   0.00000,   1.00000,   0.00000,   0.00000,1.00000,1,  100.0,  2271.000,  1406.000,   1,1.0000,   0,1.0000,   0,1.0000,   0,1.0000,0, 1.0000
   24,'1 ',   436.606,   244.741,   309.000,  -165.000,1.02000,    0,   100.000,   0.00000,   1.00000,   0.00000,   0.00000,1.00000,1,  100.0,   541.000,   288.000,   1,1.0000,   0,1.0000,   0,1.0000,   0,1.0000,0, 1.0000
   26,'1 ',   242.111,    51.702,   171.000,   -91.000,1.02000,    0,   100.000,   0.00000,   1.00000,   0.00000,   0.00000,1.00000,1,  100.0,   300.000,   120.000,   1,1.0000,   0,1.0000,   0,1.0000,   0,1.0000,0, 1.0000
   28,'1 ',   477.765,    95.045,   338.000,  -180.000,1.02000,    0,   100.000,   0.00000,   1.00000,   0.00000,   0.00000,1.00000,1,  100.0,   592.000,   216.000,   1,1.0000,   0,1.0000,   0,1.0000,   0,1.0000,0, 1.0000
   30,'1 ',   212.250,     1.496,   150.000,   -80.000,1.02000,    0,   100.000,   0.00000,   1.00000,   0.00000,   0.00000,1.00000,1,  100.0,   263.000,   125.000,   1,1.0000,   0,1.0000,   0,1.0000,   0,1.0000,0, 1.0000
   31,'1 ',   645.628,   132.104,   457.000,  -244.000,1.02000,    0,   100.000,   0.00000,   1.00000,   0.00000,   0.00000,1.00000,1,  100.0,   800.000,   241.000,   1,1.0000,   0,1.0000,   0,1.0000,   0,1.0000,0, 1.0000
   32,'1 ',   551.205,    29.283,   390.000,  -208.000,1.02000,    0,   100.000,   0.00000,   1.00000,   0.00000,   0.00000,1.00000,1,  100.0,   683.000,   163.000,   1,1.0000,   0,1.0000,   0,1.0000,   0,1.0000,0, 1.0000
   33,'1 ',   535.871,   221.237,   379.000,  -202.000,1.02000,    0,   100.000,   0.00000,   1.00000,   0.00000,   0.00000,1.00000,1,  100.0,   664.000,   379.000,   1,1.0000,   0,1.0000,   0,1.0000,   0,1.0000,0, 1.0000
   34,'1 ',   998.302,   231.637,   707.000,  -377.000,1.02000,    0,   100.000,   0.00000,   1.00000,   0.00000,   0.00000,1.00000,1,  100.0,  1237.000,   295.000,   1,1.0000,   0,1.0000,   0,1.0000,   0,1.0000,0, 1.0000
   35,'1 ',  1118.551,   263.558,   792.000,  -422.000,1.02000,    0,   100.000,   0.00000,   1.00000,   0.00000,   0.00000,1.00000,1,  100.0,  1386.000,   924.000,   1,1.0000,   0,1.0000,   0,1.0000,   0,1.0000,0, 1.0000
   36,'1 ',   474.537,    90.977,   336.000,  -179.000,1.02000,    0,   100.000,   0.00000,   1.00000,   0.00000,   0.00000,1.00000,1,  100.0,   588.000,   140.000,   1,1.0000,   0,1.0000,   0,1.0000,   0,1.0000,0, 1.0000
   37,'1 ',   457.589,    62.503,   324.000,  -173.000,1.02000,    0,   100.000,   0.00000,   1.00000,   0.00000,   0.00000,1.00000,1,  100.0,   567.000,   100.000,   1,1.0000,   0,1.0000,   0,1.0000,   0,1.0000,0, 1.0000
   38,'1 ',   703.735,    81.079,   498.000,  -266.000,1.02000,    0,   100.000,   0.00000,   1.00000,   0.00000,   0.00000,1.00000,1,  100.0,   872.000,   208.000,   1,1.0000,   0,1.0000,   0,1.0000,   0,1.0000,0, 1.0000
   49,'1 ',   489.870,   156.736,   347.000,  -185.000,1.02000,    0,   100.000,   0.00000,   1.00000,   0.00000,   0.00000,1.00000,1,  100.0,   607.000,   320.000,   1,1.0000,   0,1.0000,   0,1.0000,   0,1.0000,0, 1.0000
   52,'1 ',  1325.152,   206.287,   938.000,  -500.000,1.02000,    0,   100.000,   0.00000,   1.00000,   0.00000,   0.00000,1.00000,1,  100.0,  1642.000,   162.000,   1,1.0000,   0,1.0000,   0,1.0000,   0,1.0000,0, 1.0000
   54,'1 ',   440.641,    20.613,   312.000,  -166.000,1.02000,    0,   100.000,   0.00000,   1.00000,   0.00000,   0.00000,1.00000,1,  100.0,   546.000,   208.000,   1,1.0000,   0,1.0000,   0,1.0000,   0,1.0000,0, 1.0000
   56,'1 ',   587.522,   314.395,   416.000,  -222.000,1.02000,    0,   100.000,   0.00000,   1.00000,   0.00000,   0.00000,1.00000,1,  100.0,   728.000,   416.000,   1,1.0000,   0,1.0000,   0,1.0000,   0,1.0000,0, 1.0000
   69,'1 ',   419.658,   170.621,   297.000,  -158.000,1.02000,    0,   100.000,   0.00000,   1.00000,   0.00000,   0.00000,1.00000,1,  100.0,   520.000,   149.000,   1,1.0000,   0,1.0000,   0,1.0000,   0,1.0000,0, 1.0000
   72,'1 ',   212.250,   150.000,   150.000,   -80.000,1.02000,    0,   100.000,   0.00000,   1.00000,   0.00000,   0.00000,1.00000,1,  100.0,   263.000,    85.000,   1,1.0000,   0,1.0000,   0,1.0000,   0,1.0000,0, 1.0000
   76,'1 ',   711.805,   299.006,   504.000,  -269.000,1.02000,    0,   100.000,   0.00000,   1.00000,   0.00000,   0.00000,1.00000,1,  100.0,   882.000,   435.000,   1,1.0000,   0,1.0000,   0,1.0000,   0,1.0000,0, 1.0000
   78,'1 ',   232.426,   -22.918,   165.000,   -88.000,1.02000,    0,   100.000,   0.00000,   1.00000,   0.00000,   0.00000,1.00000,1,  100.0,   288.000,   130.000,   1,1.0000,   0,1.0000,   0,1.0000,   0,1.0000,0, 1.0000
   80,'1 ',   466.466,   -45.329,   330.000,  -176.000,1.02000,    0,   100.000,   0.00000,   1.00000,   0.00000,   0.00000,1.00000,1,  100.0,   578.000,   113.000,   1,1.0000,   0,1.0000,   0,1.0000,   0,1.0000,0, 1.0000
   82,'1 ',   252.602,   -30.016,   179.000,   -95.000,1.02000,    0,   100.000,   0.00000,   1.00000,   0.00000,   0.00000,1.00000,1,  100.0,   313.000,   176.000,   1,1.0000,   0,1.0000,   0,1.0000,   0,1.0000,0, 1.0000
   84,'1 ',   716.647,    68.694,   508.000,  -271.000,1.02000,    0,   100.000,   0.00000,   1.00000,   0.00000,   0.00000,1.00000,1,  100.0,   888.000,   169.000,   1,1.0000,   0,1.0000,   0,1.0000,   0,1.0000,0, 1.0000
  103,'1 ',   739.244,   216.594,   523.000,  -279.000,1.02000,    0,   100.000,   0.00000,   1.00000,   0.00000,   0.00000,1.00000,1,  100.0,   916.000,   208.000,   1,1.0000,   0,1.0000,   0,1.0000,   0,1.0000,0, 1.0000
  120,'1 ',   681.945,   343.033,   483.000,  -258.000,1.02000,    0,   100.000,   0.00000,   1.00000,   0.00000,   0.00000,1.00000,1,  100.0,   845.000,   161.000,   1,1.0000,   0,1.0000,   0,1.0000,   0,1.0000,0, 1.0000
  128,'1 ',   305.059,    60.091,   216.000,  -115.000,1.02000,    0,   100.000,   0.00000,   1.00000,   0.00000,   0.00000,1.00000,1,  100.0,   378.000,   180.000,   1,1.0000,   0,1.0000,   0,1.0000,   0,1.0000,0, 1.0000
  130,'1 ',   215.478,    78.441,   153.000,   -81.000,1.02000,    0,   100.000,   0.00000,   1.00000,   0.00000,   0.00000,1.00000,1,  100.0,   267.000,   115.000,   1,1.0000,   0,1.0000,   0,1.0000,   0,1.0000,0, 1.0000
  141,'1 ',  1364.696,   286.294,   967.000,  -515.000,1.02000,    0,   100.000,   0.00000,   1.00000,   0.00000,   0.00000,1.00000,1,  100.0,  1691.000,   877.000,   1,1.0000,   0,1.0000,   0,1.0000,   0,1.0000,0, 1.0000
  143,'1 ',   244.532,   173.000,   173.000,   -92.000,1.02000,    0,   100.000,   0.00000,   1.00000,   0.00000,   0.00000,1.00000,1,  100.0,   303.000,   155.000,   1,1.0000,   0,1.0000,   0,1.0000,   0,1.0000,0, 1.0000
  146,'1 ',   489.870,   347.000,   347.000,  -185.000,1.02000,    0,   100.000,   0.00000,   1.00000,   0.00000,   0.00000,1.00000,1,  100.0,   607.000,   300.000,   1,1.0000,   0,1.0000,   0,1.0000,   0,1.0000,0, 1.0000
  149,'1 ',   221.128,   132.528,   157.000,   -83.000,1.02000,    0,   100.000,   0.00000,   1.00000,   0.00000,   0.00000,1.00000,1,  100.0,   274.000,   186.000,   1,1.0000,   0,1.0000,   0,1.0000,   0,1.0000,0, 1.0000
  157,'1 ',   420.465,    66.633,   298.000,  -159.000,1.02000,    0,   100.000,   0.00000,   1.00000,   0.00000,   0.00000,1.00000,1,  100.0,   521.000,   288.000,   1,1.0000,   0,1.0000,   0,1.0000,   0,1.0000,0, 1.0000
  162,'1 ',   513.274,   123.905,   363.000,  -194.000,1.02000,    0,   100.000,   0.00000,   1.00000,   0.00000,   0.00000,1.00000,1,  100.0,   636.000,   230.000,   1,1.0000,   0,1.0000,   0,1.0000,   0,1.0000,0, 1.0000
  165,'1 ',  1052.374,   135.676,   745.000,  -397.000,1.02000,    0,   100.000,   0.00000,   1.00000,   0.00000,   0.00000,1.00000,1,  100.0,  1304.000,   782.000,   1,1.0000,   0,1.0000,   0,1.0000,   0,1.0000,0, 1.0000
  166,'1 ',   669.839,   133.295,   474.000,  -253.000,1.02000,    0,   100.000,   0.00000,   1.00000,   0.00000,   0.00000,1.00000,1,  100.0,   830.000,   277.000,   1,1.0000,   0,1.0000,   0,1.0000,   0,1.0000,0, 1.0000
  175,'1 ',   505.204,    84.637,   358.000,  -191.000,1.02000,    0,   100.000,   0.00000,   1.00000,   0.00000,   0.00000,1.00000,1,  100.0,   626.000,   209.000,   1,1.0000,   0,1.0000,   0,1.0000,   0,1.0000,0, 1.0000
  176,'1 ',   215.478,    37.590,   153.000,   -81.000,1.02000,    0,   100.000,   0.00000,   1.00000,   0.00000,   0.00000,1.00000,1,  100.0,   267.000,    86.000,   1,1.0000,   0,1.0000,   0,1.0000,   0,1.0000,0, 1.0000
0 / END OF GENERATOR DATA, BEGIN BRANCH DATA
    1,     2,'1 ', 0.00598, 0.12062,1.98515, 414.51, 414.51, 414.51,  0.00000,  0.00000,  0.00000,  0.00000,1,1, 239.2,   1,1.0000,   0,1.0000,   0,1.0000,   0,1.0000
    2,    39,'1 ', 0.00868, 0.06020,0.52937, 530.03, 530.03, 530.03,  0.00000,  0.00000,  0.00000,  0.00000,1,1,  86.8,   1,1.0000,   0,1.0000,   0,1.0000,   0,1.0000
    2,   139,'1 ', 0.00339, 0.02318,0.20974, 530.03, 530.03, 530.03,  0.00000,  0.00000,  0.00000,  0.00000,1,1,  33.9,   1,1.0000,   0,1.0000,   0,1.0000,   0,1.0000
    2,   181,'1 ', 0.00761, 0.05275,0.46393, 530.03, 530.03, 530.03,  0.00000,  0.00000,  0.00000,  0.00000,1,1,  76.1,   1,1.0000,   0,1.0000,   0,1.0000,   0,1.0000
    2,   201,'1 ', 0.00274, 0.01875,0.16965, 530.03, 530.03, 530.03,  0.00000,  0.00000,  0.00000,  0.00000,1,1,  27.4,   1,1.0000,   0,1.0000,   0,1.0000,   0,1.0000
    3,    18,'1 ', 0.00383, 0.15813,0.09685, 316.20, 316.20, 316.20,  0.00000,  0.00000,  0.00000,  0.00000,1,1,  60.3,   1,1.0000,   0,1.0000,   0,1.0000,   0,1.0000
    4,    75,'1 ', 0.01684, 0.03812,0.00951, 107.32, 107.32, 107.32,  0.00000,  0.00000,  0.00000,  0.00000,1,1,   9.2,   1,1.0000,   0,1.0000,   0,1.0000,   0,1.0000
    5,     8,'1 ', 0.00296, 0.03933,0.08406, 578.83, 578.83, 578.83,  0.00000,  0.00000,  0.00000,  0.00000,1,1,  27.9,   1,1.0000,   0,1.0000,   0,1.0000,   0,1.0000
    5,   184,'1 ', 0.04502, 0.11101,0.17939, 178.87, 178.87, 178.87,  0.00000,  0.00000,  0.00000,  0.00000,1,1,  68.6,   1,1.0000,   0,1.0000,   0,1.0000,   0,1.0000
    5,   207,'1 ', 0.00112, 0.01328,0.03027, 541.39, 541.39, 541.39,  0.00000,  0.00000,  0.00000,  0.00000,1,1,   9.7,   1,1.0000,   0,1.0000,   0,1.0000,   0,1.0000
    6,     7,'1 ', 0.06200, 0.14575,0.03365, 107.32, 107.32, 107.32,  0.00000,  0.00000,  0.00000,  0.00000,1,1,  34.0,   1,1.0000,   0,1.0000,   0,1.0000,   0,1.0000
    6,    70,'1 ', 0.03364, 0.07769,0.01859, 107.32, 107.32, 107.32,  0.00000,  0.00000,  0.00000,  0.00000,1,1,  18.5,   1,1.0000,   0,1.0000,   0,1.0000,   0,1.0000
    8,    54,'1 ', 0.00033, 0.00508,0.01216, 665.28, 665.28, 665.28,  0.00000,  0.00000,  0.00000,  0.00000,1,1,   3.8,   1,1.0000,   0,1.0000,   0,1.0000,   0,1.0000
  187,     9,'1 ', 0.00684, 0.04742,0.41703, 530.03, 530.03, 530.03,  0.00000,  0.00000,  0.00000,  0.00000,1,1,  68.4,   1,1.0000,   0,1.0000,   0,1.0000,   0,1.0000
   10,    11,'1 ', 0.00032, 0.00856,0.00495, 566.01, 566.01, 566.01,  0.00000,  0.00000,  0.00000,  0.00000,1,1,   3.2,   1,1.0000,   0,1.0000,   0,1.0000,   0,1.0000
   10,    70,'1 ', 0.00580, 0.06727,0.02063, 324.83, 324.83, 324.83,  0.00000,  0.00000,  0.00000,  0.00000,1,1,  18.1,   1,1.0000,   0,1.0000,   0,1.0000,   0,1.0000
   11,   173,'1 ', 0.01667, 0.12408,0.03486, 237.35, 237.35, 237.35,  0.00000,  0.00000,  0.00000,  0.00000,1,1,  31.9,   1,1.0000,   0,1.0000,   0,1.0000,   0,1.0000
  188,    13,'1 ', 0.00011, 0.00195,0.02003,1045.73,1045.73,1045.73,  0.00000,  0.00000,  0.00000,  0.00000,1,1,   3.0,   1,1.0000,   0,1.0000,   0,1.0000,   0,1.0000
   13,   190,'1 ', 0.00085, 0.01791,0.26779,1060.07,1060.07,1060.07,  0.00000,  0.00000,  0.00000,  0.00000,1,1,  33.9,   1,1.0000,   0,1.0000,   0,1.0000,   0,1.0000
   14,    15,'1 ', 0.03611, 0.08904,0.14388, 178.87, 178.87, 178.87,  0.00000,  0.00000,  0.00000,  0.00000,1,1,  55.0,   1,1.0000,   0,1.0000,   0,1.0000,   0,1.0000
   14,   177,'1 ', 0.01882, 0.06776,0.11459, 229.46, 229.46, 229.46,  0.00000,  0.00000,  0.00000,  0.00000,1,1,  42.5,   1,1.0000,   0,1.0000,   0,1.0000,   0,1.0000
   15,    61,'1 ', 0.00413, 0.02750,0.05200, 353.36, 353.36, 353.36,  0.00000,  0.00000,  0.00000,  0.00000,1,1,  18.4,   1,1.0000,   0,1.0000,   0,1.0000,   0,1.0000
  184,    15,'1 ', 0.00343, 0.04204,0.08894, 541.39, 541.39, 541.39,  0.00000,  0.00000,  0.00000,  0.00000,1,1,  29.7,   1,1.0000,   0,1.0000,   0,1.0000,   0,1.0000
   16,   149,'1 ', 0.01423, 0.04695,0.01231, 137.68, 137.68, 137.68,  0.00000,  0.00000,  0.00000,  0.00000,1,1,  11.6,   1,1.0000,   0,1.0000,   0,1.0000,   0,1.0000
   17,    18,'1 ', 0.05670, 0.19450,0.04709, 137.68, 137.68, 137.68,  0.00000,  0.00000,  0.00000,  0.00000,1,1,  46.1,   1,1.0000,   0,1.0000,   0,1.0000,   0,1.0000
   17,   145,'1 ', 0.04673, 0.10452,0.02669, 107.32, 107.32, 107.32,  0.00000,  0.00000,  0.00000,  0.00000,1,1,  25.6,   1,1.0000,   0,1.0000,   0,1.0000,   0,1.0000
   19,    96,'1 ', 0.05510, 0.12952,0.02990, 107.32, 107.32, 107.32,  0.00000,  0.00000,  0.00000,  0.00000,1,1,  30.2,   1,1.0000,   0,1.0000,   0,1.0000,   0,1.0000
   19,   105,'1 ', 0.00053, 0.01276,0.00724, 522.03, 522.03, 522.03,  0.00000,  0.00000,  0.00000,  0.00000,1,1,   4.7,   1,1.0000,   0,1.0000,   0,1.0000,   0,1.0000
   19,   110,'1 ', 0.00509, 0.02371,0.00609, 173.53, 173.53, 173.53,  0.00000,  0.00000,  0.00000,  0.00000,1,1,   5.8,   1,1.0000,   0,1.0000,   0,1.0000,   0,1.0000
   19,   118,'1 ', 0.00064, 0.01345,0.00755, 474.70, 474.70, 474.70,  0.00000,  0.00000,  0.00000,  0.00000,1,1,   4.9,   1,1.0000,   0,1.0000,   0,1.0000,   0,1.0000
   19,   175,'1 ', 0.05620, 0.25162,0.07017, 173.53, 173.53, 173.53,  0.00000,  0.00000,  0.00000,  0.00000,1,1,  64.5,   1,1.0000,   0,1.0000,   0,1.0000,   0,1.0000
   21,   129,'1 ', 0.00698, 0.03501,0.01005, 187.39, 187.39, 187.39,  0.00000,  0.00000,  0.00000,  0.00000,1,1,   9.1,   1,1.0000,   0,1.0000,   0,1.0000,   0,1.0000
   21,   130,'1 ', 0.00738, 0.06070,0.01884, 261.01, 261.01, 261.01,  0.00000,  0.00000,  0.00000,  0.00000,1,1,  16.4,   1,1.0000,   0,1.0000,   0,1.0000,   0,1.0000
   22,    23,'1 ', 0.01398, 0.03448,0.05572, 178.87, 178.87, 178.87,  0.00000,  0.00000,  0.00000,  0.00000,1,1,  21.3,   1,1.0000,   0,1.0000,   0,1.0000,   0,1.0000
   23,    24,'1 ', 0.04301, 0.10605,0.17137, 178.87, 178.87, 178.87,  0.00000,  0.00000,  0.00000,  0.00000,1,1,  65.6,   1,1.0000,   0,1.0000,   0,1.0000,   0,1.0000
   23,    90,'1 ', 0.00690, 0.02037,0.03648, 206.75, 206.75, 206.75,  0.00000,  0.00000,  0.00000,  0.00000,1,1,  13.2,   1,1.0000,   0,1.0000,   0,1.0000,   0,1.0000
   23,    91,'1 ', 0.01279, 0.05439,0.09557, 262.53, 262.53, 262.53,  0.00000,  0.00000,  0.00000,  0.00000,1,1,  35.1,   1,1.0000,   0,1.0000,   0,1.0000,   0,1.0000
   24,   177,'1 ', 0.00208, 0.01428,0.02528, 353.36, 353.36, 353.36,  0.00000,  0.00000,  0.00000,  0.00000,1,1,   9.2,   1,1.0000,   0,1.0000,   0,1.0000,   0,1.0000
   25,   133,'1 ', 0.00613, 0.04868,0.09258, 395.58, 395.58, 395.58,  0.00000,  0.00000,  0.00000,  0.00000,1,1,  32.6,   1,1.0000,   0,1.0000,   0,1.0000,   0,1.0000
   25,   168,'1 ', 0.01816, 0.04527,0.07160, 178.87, 178.87, 178.87,  0.00000,  0.00000,  0.00000,  0.00000,1,1,  27.7,   1,1.0000,   0,1.0000,   0,1.0000,   0,1.0000
   26,    42,'1 ', 0.00714, 0.04949,0.43522, 530.03, 530.03, 530.03,  0.00000,  0.00000,  0.00000,  0.00000,1,1,  71.4,   1,1.0000,   0,1.0000,   0,1.0000,   0,1.0000
   26,    43,'1 ', 0.00133, 0.00911,0.08245, 530.03, 530.03, 530.03,  0.00000,  0.00000,  0.00000,  0.00000,1,1,  13.3,   1,1.0000,   0,1.0000,   0,1.0000,   0,1.0000
   26,   202,'1 ', 0.01045, 0.07245,0.63716, 530.03, 530.03, 530.03,  0.00000,  0.00000,  0.00000,  0.00000,1,1, 104.5,   1,1.0000,   0,1.0000,   0,1.0000,   0,1.0000
...